XFLR5 v6.09.01 beta

 Calculated polar for: NACA 0012

 1 1 Reynolds number fixed          Mach number fixed         

 xtrf =   1.000 (top)        1.000 (bottom)
 Mach =   0.300     Re =    30.000 e 6     Ncrit =  12.000

  alpha     CL        CD       CDp       Cm    Top Xtr Bot Xtr   Cpmin    Chinge    XCp    
 ------- -------- --------- --------- -------- ------- ------- -------- --------- ---------
 -10.000  -1.2191   0.00812   0.00462  -0.0061  0.9575  0.0091  -7.0720   0.0000   0.2332
  -9.500  -1.1590   0.00770   0.00416  -0.0047  0.9361  0.0108  -6.4191   0.0000   0.2349
  -9.000  -1.0981   0.00735   0.00375  -0.0035  0.9116  0.0118  -5.7930   0.0000   0.2364
  -8.500  -1.0369   0.00706   0.00340  -0.0026  0.8815  0.0132  -5.2010   0.0000   0.2378
  -8.000  -0.9759   0.00676   0.00306  -0.0018  0.8489  0.0149  -4.6436   0.0000   0.2391
  -7.500  -0.9146   0.00653   0.00276  -0.0011  0.8123  0.0170  -4.1466   0.0000   0.2403
  -7.000  -0.8533   0.00632   0.00249  -0.0006  0.7733  0.0188  -3.6840   0.0000   0.2414
  -6.500  -0.7922   0.00611   0.00222  -0.0001  0.7354  0.0222  -3.2483   0.0000   0.2424
  -6.000  -0.7310   0.00592   0.00199   0.0002  0.6973  0.0262  -2.8539   0.0000   0.2433
  -5.500  -0.6698   0.00577   0.00178   0.0005  0.6578  0.0309  -2.4947   0.0000   0.2441
  -5.000  -0.6087   0.00561   0.00159   0.0007  0.6201  0.0382  -2.1641   0.0000   0.2449
  -4.500  -0.5476   0.00547   0.00142   0.0008  0.5835  0.0462  -1.8683   0.0000   0.2456
  -4.000  -0.4867   0.00534   0.00126   0.0008  0.5458  0.0577  -1.6038   0.0000   0.2462
  -3.500  -0.4256   0.00521   0.00112   0.0009  0.5111  0.0724  -1.3674   0.0000   0.2467
  -3.000  -0.3649   0.00509   0.00100   0.0008  0.4747  0.0920  -1.1603   0.0000   0.2472
  -2.500  -0.3040   0.00498   0.00089   0.0008  0.4407  0.1148  -0.9801   0.0000   0.2476
  -2.000  -0.2432   0.00489   0.00081   0.0007  0.4048  0.1407  -0.8273   0.0000   0.2480
  -1.500  -0.1824   0.00481   0.00074   0.0005  0.3715  0.1695  -0.6998   0.0000   0.2483
  -1.000  -0.1216   0.00476   0.00069   0.0004  0.3351  0.2013  -0.5946   0.0000   0.2485
  -0.500  -0.0608   0.00472   0.00066   0.0002  0.3017  0.2344  -0.5080   0.0000   0.2487
   0.000  -0.0000   0.00470   0.00065  -0.0000  0.2682  0.2682  -0.4360   0.0000   0.1357
   0.500   0.0608   0.00472   0.00066  -0.0002  0.2344  0.3017  -0.5080   0.0000   0.2487
   1.000   0.1216   0.00476   0.00069  -0.0004  0.2013  0.3351  -0.5946   0.0000   0.2485
   1.500   0.1824   0.00481   0.00074  -0.0005  0.1695  0.3715  -0.6998   0.0000   0.2483
   2.000   0.2432   0.00489   0.00081  -0.0007  0.1407  0.4048  -0.8273   0.0000   0.2480
   2.500   0.3040   0.00498   0.00089  -0.0008  0.1148  0.4407  -0.9801   0.0000   0.2476
   3.000   0.3649   0.00509   0.00100  -0.0008  0.0920  0.4747  -1.1603   0.0000   0.2472
   3.500   0.4256   0.00521   0.00112  -0.0009  0.0724  0.5111  -1.3674   0.0000   0.2467
   4.000   0.4867   0.00534   0.00126  -0.0009  0.0577  0.5458  -1.6038   0.0000   0.2462
   4.500   0.5476   0.00547   0.00142  -0.0008  0.0462  0.5835  -1.8684   0.0000   0.2456
   5.000   0.6087   0.00561   0.00159  -0.0007  0.0381  0.6201  -2.1642   0.0000   0.2449
   5.500   0.6698   0.00577   0.00178  -0.0005  0.0309  0.6578  -2.4947   0.0000   0.2441
   6.000   0.7310   0.00592   0.00199  -0.0002  0.0262  0.6973  -2.8540   0.0000   0.2433
   6.500   0.7922   0.00611   0.00222   0.0001  0.0222  0.7354  -3.2485   0.0000   0.2424
   7.000   0.8534   0.00632   0.00249   0.0006  0.0188  0.7733  -3.6841   0.0000   0.2414
   7.500   0.9146   0.00653   0.00276   0.0011  0.0170  0.8123  -4.1468   0.0000   0.2403
   8.000   0.9759   0.00676   0.00306   0.0018  0.0149  0.8488  -4.6439   0.0000   0.2391
   8.500   1.0370   0.00706   0.00340   0.0026  0.0132  0.8815  -5.2014   0.0000   0.2378
   9.000   1.0982   0.00735   0.00375   0.0035  0.0118  0.9116  -5.7934   0.0000   0.2365
  10.000   1.2192   0.00812   0.00462   0.0061  0.0091  0.9575  -7.0726   0.0000   0.2332
  10.500   1.2794   0.00849   0.00504   0.0077  0.0090  0.9741  -7.7703   0.0000   0.2314
  11.000   1.3376   0.00895   0.00554   0.0098  0.0084  0.9876  -8.5452   0.0000   0.2293
  12.000   1.4629   0.01015   0.00680   0.0126  0.0067  0.9994  -10.2879   0.0000   0.2262
  12.500   1.5247   0.01074   0.00743   0.0145  0.0066  1.0000  -11.2394   0.0000   0.2244
  13.000   1.5834   0.01140   0.00813   0.0171  0.0063  1.0000  -12.2192   0.0000   0.2221
  13.500   1.6408   0.01218   0.00897   0.0200  0.0059  1.0000  -13.2393   0.0000   0.2196
  14.000   1.6962   0.01310   0.00996   0.0233  0.0054  1.0000  -14.2900   0.0000   0.2170
  14.500   1.7492   0.01413   0.01108   0.0270  0.0049  1.0000  -15.3584   0.0000   0.2141
  15.000   1.7986   0.01530   0.01236   0.0313  0.0047  1.0000  -16.4400   0.0000   0.2110
  15.500   1.8410   0.01652   0.01370   0.0367  0.0046  1.0000  -17.5454   0.0000   0.2073
  16.000   1.8685   0.01809   0.01541   0.0436  0.0046  1.0000  -18.5516   0.0000   0.2026
  16.500   1.8891   0.02037   0.01785   0.0499  0.0046  1.0000  -19.4890   0.0000   0.1983
  17.000   1.8989   0.02380   0.02147   0.0550  0.0045  1.0000  -20.2848   0.0000   0.1944
  17.500   1.8952   0.02897   0.02686   0.0579  0.0045  1.0000  -20.8750   0.0000   0.1915
  18.000   1.8780   0.03644   0.03454   0.0575  0.0045  1.0000  -21.2275   0.0000   0.1900
  18.500   1.8476   0.04627   0.04456   0.0539  0.0045  1.0000  -21.3314   0.0000   0.1899
  19.000   1.8061   0.05795   0.05640   0.0482  0.0044  1.0000  -21.2109   0.0000   0.1910
  19.500   1.7550   0.07111   0.06969   0.0412  0.0044  1.0000  -20.8854   0.0000   0.1928
  20.000   1.6949   0.08564   0.08432   0.0329  0.0043  1.0000  -20.3500   0.0000   0.1956


