XFLR5 v6.09.01 beta

 Calculated polar for: NACA 0016

 1 1 Reynolds number fixed          Mach number fixed         

 xtrf =   1.000 (top)        1.000 (bottom)
 Mach =   0.300     Re =    30.000 e 6     Ncrit =  12.000

  alpha     CL        CD       CDp       Cm    Top Xtr Bot Xtr   Cpmin    Chinge    XCp    
 ------- -------- --------- --------- -------- ------- ------- -------- --------- ---------
  -5.000  -0.6154   0.00585   0.00172   0.0010  0.5390  0.0842  -1.8011   0.0000   0.2422
  -4.500  -0.5538   0.00572   0.00158   0.0010  0.5110  0.0955  -1.6133   0.0000   0.2429
  -4.000  -0.4925   0.00558   0.00143   0.0011  0.4833  0.1094  -1.4426   0.0000   0.2435
  -3.500  -0.4311   0.00544   0.00130   0.0011  0.4559  0.1260  -1.2879   0.0000   0.2441
  -3.000  -0.3697   0.00533   0.00120   0.0010  0.4287  0.1441  -1.1500   0.0000   0.2445
  -2.500  -0.3082   0.00524   0.00111   0.0009  0.4024  0.1633  -1.0261   0.0000   0.2450
  -2.000  -0.2466   0.00516   0.00104   0.0008  0.3775  0.1842  -0.9163   0.0000   0.2453
  -1.500  -0.1850   0.00509   0.00098   0.0006  0.3526  0.2067  -0.8190   0.0000   0.2456
  -1.000  -0.1233   0.00504   0.00094   0.0004  0.3280  0.2304  -0.7327   0.0000   0.2457
  -0.500  -0.0617   0.00501   0.00091   0.0002  0.3032  0.2542  -0.6557   0.0000   0.2458
   0.000   0.0000   0.00500   0.00090  -0.0000  0.2788  0.2788  -0.5865   0.0000   0.3241
   0.500   0.0617   0.00501   0.00091  -0.0002  0.2542  0.3032  -0.6557   0.0000   0.2458
   1.000   0.1233   0.00504   0.00094  -0.0004  0.2304  0.3280  -0.7327   0.0000   0.2457
   1.500   0.1850   0.00509   0.00098  -0.0006  0.2067  0.3526  -0.8190   0.0000   0.2456
   2.000   0.2466   0.00516   0.00104  -0.0008  0.1841  0.3775  -0.9163   0.0000   0.2453
   2.500   0.3082   0.00524   0.00111  -0.0009  0.1633  0.4024  -1.0261   0.0000   0.2450
   3.000   0.3697   0.00533   0.00120  -0.0010  0.1441  0.4287  -1.1501   0.0000   0.2446
   3.500   0.4312   0.00544   0.00130  -0.0011  0.1260  0.4559  -1.2879   0.0000   0.2441
   4.000   0.4925   0.00558   0.00143  -0.0011  0.1094  0.4833  -1.4426   0.0000   0.2435
   4.500   0.5538   0.00572   0.00158  -0.0010  0.0955  0.5110  -1.6133   0.0000   0.2429
   5.000   0.6154   0.00585   0.00172  -0.0010  0.0842  0.5390  -1.8012   0.0000   0.2423
   5.500   0.6764   0.00604   0.00191  -0.0008  0.0719  0.5676  -2.0042   0.0000   0.2415
   6.000   0.7378   0.00620   0.00209  -0.0006  0.0638  0.5967  -2.2286   0.0000   0.2407
   6.500   0.7989   0.00640   0.00231  -0.0003  0.0562  0.6265  -2.4700   0.0000   0.2398
   7.000   0.8600   0.00660   0.00253   0.0001  0.0497  0.6567  -2.7275   0.0000   0.2389
   7.500   0.9208   0.00683   0.00279   0.0006  0.0438  0.6870  -3.0077   0.0000   0.2378
   8.000   0.9818   0.00705   0.00305   0.0011  0.0396  0.7181  -3.3050   0.0000   0.2368
   8.500   1.0424   0.00731   0.00334   0.0018  0.0353  0.7512  -3.6207   0.0000   0.2356
   9.000   1.1024   0.00760   0.00368   0.0027  0.0309  0.7831  -3.9602   0.0000   0.2342
   9.500   1.1627   0.00789   0.00401   0.0036  0.0291  0.8132  -4.3157   0.0000   0.2329
  10.000   1.2226   0.00821   0.00438   0.0047  0.0263  0.8429  -4.6897   0.0000   0.2315
  10.500   1.2816   0.00858   0.00479   0.0061  0.0242  0.8718  -5.0939   0.0000   0.2299
  11.000   1.3406   0.00895   0.00521   0.0075  0.0221  0.8979  -5.5149   0.0000   0.2283
  11.500   1.3986   0.00938   0.00568   0.0092  0.0208  0.9214  -5.9495   0.0000   0.2265
  12.000   1.4550   0.00986   0.00622   0.0113  0.0185  0.9425  -6.3936   0.0000   0.2245
  12.500   1.5115   0.01030   0.00671   0.0135  0.0181  0.9608  -6.8819   0.0000   0.2224
  13.000   1.5635   0.01089   0.00733   0.0165  0.0169  0.9775  -7.3723   0.0000   0.2199
  13.500   1.6099   0.01152   0.00801   0.0205  0.0151  0.9927  -7.8536   0.0000   0.2168
  14.000   1.6626   0.01215   0.00867   0.0234  0.0148  1.0000  -8.3853   0.0000   0.2145
  14.500   1.7048   0.01291   0.00946   0.0279  0.0143  1.0000  -8.8836   0.0000   0.2111
  15.000   1.7438   0.01393   0.01052   0.0325  0.0134  1.0000  -9.3788   0.0000   0.2078
  15.500   1.7817   0.01512   0.01176   0.0369  0.0121  1.0000  -9.8795   0.0000   0.2047
  16.000   1.8206   0.01640   0.01309   0.0409  0.0119  1.0000  -10.4278   0.0000   0.2018
  16.500   1.8576   0.01792   0.01467   0.0447  0.0117  1.0000  -10.9874   0.0000   0.1990
  17.000   1.8906   0.01983   0.01665   0.0482  0.0114  1.0000  -11.5369   0.0000   0.1963
  17.500   1.9174   0.02233   0.01922   0.0516  0.0110  1.0000  -12.0564   0.0000   0.1937
  18.000   1.9370   0.02556   0.02254   0.0544  0.0104  1.0000  -12.5341   0.0000   0.1911
  18.500   1.9508   0.02956   0.02665   0.0564  0.0098  1.0000  -12.9733   0.0000   0.1889
  19.000   1.9587   0.03436   0.03155   0.0577  0.0093  1.0000  -13.3681   0.0000   0.1870
  19.500   1.9605   0.04001   0.03731   0.0580  0.0091  1.0000  -13.7188   0.0000   0.1854
  20.000   1.9554   0.04656   0.04398   0.0574  0.0091  1.0000  -14.0126   0.0000   0.1841
  20.500   1.9365   0.05460   0.05214   0.0557  0.0090  1.0000  -14.1838   0.0000   0.1831
  21.000   1.9055   0.06405   0.06173   0.0529  0.0090  1.0000  -14.2374   0.0000   0.1826
  21.500   1.8639   0.07485   0.07267   0.0488  0.0089  1.0000  -14.1791   0.0000   0.1826
  22.000   1.8071   0.08749   0.08545   0.0431  0.0089  1.0000  -13.9581   0.0000   0.1833
  22.500   1.7402   0.10163   0.09973   0.0358  0.0089  1.0000  -13.6095   0.0000   0.1850
  23.000   1.6750   0.11610   0.11434   0.0276  0.0088  1.0000  -13.2365   0.0000   0.1876
  23.500   1.6074   0.13146   0.12984   0.0179  0.0088  1.0000  -12.7931   0.0000   0.1913
  24.000   1.5468   0.14651   0.14501   0.0076  0.0088  1.0000  -12.3678   0.0000   0.1960
  24.500   1.4903   0.16185   0.16046  -0.0037  0.0087  1.0000  -11.9249   0.0000   0.2019
  25.000   1.4368   0.17740   0.17613  -0.0160  0.0087  1.0000  -11.4567   0.0000   0.2090
  25.500   1.3954   0.19182   0.19065  -0.0277  0.0085  1.0000  -11.0807   0.0000   0.2163
  26.000   1.3574   0.20644   0.20536  -0.0400  0.0083  1.0000  -10.6812   0.0000   0.2245
  26.500   1.3218   0.22132   0.22033  -0.0527  0.0081  1.0000  -10.2480   0.0000   0.2335
  27.000   1.2897   0.23612   0.23521  -0.0654  0.0077  1.0000  -9.7925   0.0000   0.2432
  27.500   1.2616   0.25069   0.24986  -0.0779  0.0072  1.0000  -9.3241   0.0000   0.2531
  28.000   1.2473   0.26297   0.26219  -0.0885  0.0067  1.0000  -9.0219   0.0000   0.2610
  28.500   1.2436   0.27302   0.27229  -0.0973  0.0067  1.0000  -8.8830   0.0000   0.2669
  29.000   1.2416   0.28283   0.28214  -0.1059  0.0067  1.0000  -8.7456   0.0000   0.2725
  29.500   1.2399   0.29271   0.29207  -0.1146  0.0065  1.0000  -8.5831   0.0000   0.2782
  30.000   1.2470   0.30021   0.29958  -0.1216  0.0063  1.0000  -8.6034   0.0000   0.2816


