XFLR5 v6.09.01 beta

 Calculated polar for: NACA 0010

 1 1 Reynolds number fixed          Mach number fixed         

 xtrf =   1.000 (top)        1.000 (bottom)
 Mach =   0.300     Re =    30.000 e 6     Ncrit =  12.000

  alpha     CL        CD       CDp       Cm    Top Xtr Bot Xtr   Cpmin    Chinge    XCp    
 ------- -------- --------- --------- -------- ------- ------- -------- --------- ---------
  -5.000  -0.6045   0.00545   0.00155   0.0004  0.6774  0.0209  -2.6272   0.0000   0.2458
  -4.500  -0.5437   0.00531   0.00136   0.0006  0.6338  0.0262  -2.2214   0.0000   0.2465
  -4.000  -0.4829   0.00520   0.00120   0.0007  0.5913  0.0339  -1.8573   0.0000   0.2471
  -3.500  -0.4223   0.00508   0.00105   0.0007  0.5496  0.0453  -1.5362   0.0000   0.2477
  -3.000  -0.3618   0.00498   0.00092   0.0007  0.5081  0.0609  -1.2607   0.0000   0.2482
  -2.500  -0.3013   0.00487   0.00080   0.0007  0.4668  0.0822  -1.0229   0.0000   0.2486
  -2.000  -0.2410   0.00478   0.00071   0.0006  0.4258  0.1089  -0.8257   0.0000   0.2490
  -1.500  -0.1807   0.00469   0.00063   0.0005  0.3846  0.1425  -0.6634   0.0000   0.2493
  -1.000  -0.1205   0.00463   0.00058   0.0003  0.3434  0.1800  -0.5358   0.0000   0.2495
  -0.500  -0.0602   0.00461   0.00055   0.0002  0.3005  0.2180  -0.4380   0.0000   0.2496
   0.000  -0.0000   0.00458   0.00054  -0.0000  0.2597  0.2597  -0.3624   0.0000   0.0485
   0.500   0.0602   0.00461   0.00055  -0.0002  0.2180  0.3005  -0.4380   0.0000   0.2496
   1.000   0.1205   0.00463   0.00058  -0.0003  0.1799  0.3434  -0.5358   0.0000   0.2495
   1.500   0.1807   0.00469   0.00063  -0.0005  0.1425  0.3846  -0.6634   0.0000   0.2493
   2.000   0.2410   0.00478   0.00071  -0.0006  0.1089  0.4257  -0.8257   0.0000   0.2490
   2.500   0.3013   0.00487   0.00080  -0.0007  0.0822  0.4668  -1.0229   0.0000   0.2486
   3.000   0.3618   0.00498   0.00092  -0.0007  0.0609  0.5081  -1.2607   0.0000   0.2482
   3.500   0.4223   0.00508   0.00105  -0.0007  0.0453  0.5496  -1.5362   0.0000   0.2477
   4.000   0.4830   0.00520   0.00120  -0.0007  0.0339  0.5913  -1.8573   0.0000   0.2471
   4.500   0.5437   0.00531   0.00136  -0.0006  0.0262  0.6338  -2.2215   0.0000   0.2465
   5.000   0.6045   0.00545   0.00155  -0.0004  0.0209  0.6774  -2.6273   0.0000   0.2458
   5.500   0.6654   0.00559   0.00175  -0.0002  0.0171  0.7216  -3.0805   0.0000   0.2449
   6.000   0.7265   0.00574   0.00197   0.0001  0.0144  0.7661  -3.5942   0.0000   0.2440
   6.500   0.7875   0.00592   0.00223   0.0006  0.0118  0.8097  -4.1445   0.0000   0.2430
   7.000   0.8485   0.00615   0.00252   0.0012  0.0097  0.8510  -4.7331   0.0000   0.2419
   7.500   0.9098   0.00636   0.00281   0.0018  0.0090  0.8889  -5.4258   0.0000   0.2407
   8.000   0.9707   0.00667   0.00318   0.0027  0.0076  0.9223  -6.1659   0.0000   0.2393
   8.500   1.0316   0.00698   0.00356   0.0038  0.0067  0.9495  -6.9584   0.0000   0.2378
   9.000   1.0922   0.00731   0.00394   0.0051  0.0064  0.9708  -7.8124   0.0000   0.2361
   9.500   1.1509   0.00776   0.00444   0.0069  0.0055  0.9867  -8.7038   0.0000   0.2340
  10.000   1.2120   0.00828   0.00500   0.0085  0.0047  0.9965  -9.6579   0.0000   0.2323
  10.500   1.2794   0.00879   0.00554   0.0089  0.0046  0.9994  -10.8375   0.0000   0.2314
  11.000   1.3426   0.00935   0.00614   0.0104  0.0045  1.0000  -12.0780   0.0000   0.2297
  11.500   1.4036   0.01000   0.00684   0.0126  0.0041  1.0000  -13.3852   0.0000   0.2276
  12.000   1.4642   0.01077   0.00768   0.0150  0.0038  1.0000  -14.7771   0.0000   0.2253
  12.500   1.5240   0.01167   0.00868   0.0178  0.0035  1.0000  -16.2514   0.0000   0.2229
  13.000   1.5820   0.01278   0.00993   0.0210  0.0034  1.0000  -17.7882   0.0000   0.2202
  13.500   1.6353   0.01430   0.01164   0.0249  0.0032  1.0000  -19.3226   0.0000   0.2171
  14.000   1.6780   0.01660   0.01422   0.0299  0.0032  1.0000  -20.7097   0.0000   0.2133
  14.500   1.6981   0.02021   0.01820   0.0366  0.0032  1.0000  -21.6862   0.0000   0.2085
  15.000   1.6785   0.02460   0.02293   0.0460  0.0031  1.0000  -22.0163   0.0000   0.2017
  15.500   1.6450   0.03126   0.02988   0.0500  0.0031  1.0000  -22.0657   0.0000   0.1976
  16.000   1.6023   0.04220   0.04107   0.0450  0.0030  1.0000  -21.8115   0.0000   0.1985
  16.500   1.5659   0.05523   0.05426   0.0360  0.0030  1.0000  -21.6259   0.0000   0.2024
  17.000   1.5260   0.06922   0.06835   0.0268  0.0030  1.0000  -21.3216   0.0000   0.2066
  17.500   1.4820   0.08338   0.08257   0.0186  0.0030  1.0000  -20.8944   0.0000   0.2106
  18.000   1.4340   0.09780   0.09703   0.0104  0.0029  1.0000  -20.3227   0.0000   0.2148
  18.500   1.3809   0.11313   0.11238   0.0015  0.0029  1.0000  -19.5413   0.0000   0.2202
  19.000   1.3204   0.13011   0.12939  -0.0093  0.0029  1.0000  -18.4449   0.0000   0.2275
  19.500   1.2452   0.15047   0.14979  -0.0233  0.0029  1.0000  -16.7554   0.0000   0.2388
  20.000   1.1447   0.17800   0.17738  -0.0435  0.0030  1.0000  -13.9656   0.0000   0.2585


