XFLR5 v6.09.01 beta

 Calculated polar for: NACA 0014

 1 1 Reynolds number fixed          Mach number fixed         

 xtrf =   1.000 (top)        1.000 (bottom)
 Mach =   0.300     Re =    30.000 e 6     Ncrit =  12.000

  alpha     CL        CD       CDp       Cm    Top Xtr Bot Xtr   Cpmin    Chinge    XCp    
 ------- -------- --------- --------- -------- ------- ------- -------- --------- ---------
  -5.000  -0.6124   0.00575   0.00166   0.0009  0.5738  0.0597  -1.9241   0.0000   0.2437
  -4.500  -0.5511   0.00560   0.00149   0.0010  0.5418  0.0707  -1.6929   0.0000   0.2444
  -4.000  -0.4899   0.00545   0.00134   0.0010  0.5116  0.0846  -1.4848   0.0000   0.2450
  -3.500  -0.4287   0.00532   0.00120   0.0010  0.4811  0.1006  -1.2991   0.0000   0.2455
  -3.000  -0.3675   0.00521   0.00109   0.0009  0.4507  0.1199  -1.1343   0.0000   0.2460
  -2.500  -0.3064   0.00510   0.00099   0.0009  0.4197  0.1422  -0.9892   0.0000   0.2465
  -2.000  -0.2451   0.00502   0.00092   0.0007  0.3887  0.1637  -0.8630   0.0000   0.2468
  -1.500  -0.1839   0.00494   0.00085   0.0006  0.3605  0.1911  -0.7547   0.0000   0.2471
  -1.000  -0.1225   0.00489   0.00081   0.0004  0.3322  0.2159  -0.6612   0.0000   0.2472
  -0.500  -0.0613   0.00485   0.00078   0.0002  0.3025  0.2458  -0.5809   0.0000   0.2475
   0.000  -0.0000   0.00485   0.00077  -0.0000  0.2726  0.2726  -0.5107   0.0000   0.0523
   0.500   0.0613   0.00485   0.00078  -0.0002  0.2458  0.3025  -0.5809   0.0000   0.2475
   1.000   0.1225   0.00489   0.00081  -0.0004  0.2159  0.3322  -0.6612   0.0000   0.2472
   1.500   0.1839   0.00494   0.00085  -0.0006  0.1911  0.3605  -0.7547   0.0000   0.2471
   2.000   0.2451   0.00502   0.00092  -0.0007  0.1637  0.3887  -0.8630   0.0000   0.2468
   2.500   0.3064   0.00510   0.00099  -0.0009  0.1422  0.4197  -0.9892   0.0000   0.2465
   3.000   0.3675   0.00521   0.00109  -0.0009  0.1199  0.4507  -1.1343   0.0000   0.2460
   3.500   0.4287   0.00532   0.00120  -0.0010  0.1006  0.4811  -1.2992   0.0000   0.2455
   4.000   0.4899   0.00545   0.00134  -0.0010  0.0846  0.5116  -1.4848   0.0000   0.2450
   4.500   0.5512   0.00560   0.00149  -0.0010  0.0707  0.5418  -1.6929   0.0000   0.2444
   5.000   0.6124   0.00575   0.00166  -0.0009  0.0597  0.5738  -1.9242   0.0000   0.2437
   5.500   0.6737   0.00590   0.00183  -0.0007  0.0508  0.6080  -2.1775   0.0000   0.2430
   6.000   0.7349   0.00608   0.00203  -0.0005  0.0436  0.6415  -2.4525   0.0000   0.2422
   6.500   0.7960   0.00628   0.00226  -0.0002  0.0367  0.6738  -2.7558   0.0000   0.2413
   7.000   0.8572   0.00647   0.00250   0.0002  0.0323  0.7102  -3.0801   0.0000   0.2403
   7.500   0.9185   0.00668   0.00275   0.0007  0.0289  0.7441  -3.4316   0.0000   0.2393
   8.000   0.9796   0.00691   0.00303   0.0013  0.0255  0.7796  -3.8142   0.0000   0.2382
   8.500   1.0405   0.00718   0.00335   0.0020  0.0222  0.8129  -4.2142   0.0000   0.2370
   9.000   1.1013   0.00747   0.00369   0.0029  0.0204  0.8457  -4.6425   0.0000   0.2357
   9.500   1.1622   0.00776   0.00404   0.0038  0.0183  0.8760  -5.1134   0.0000   0.2343
  10.000   1.2224   0.00813   0.00445   0.0050  0.0167  0.9022  -5.6051   0.0000   0.2328
  10.500   1.2826   0.00850   0.00487   0.0063  0.0150  0.9268  -6.1201   0.0000   0.2312
  11.000   1.3426   0.00889   0.00530   0.0078  0.0143  0.9475  -6.6606   0.0000   0.2296
  11.500   1.4004   0.00940   0.00586   0.0098  0.0126  0.9650  -7.2351   0.0000   0.2276
  12.000   1.4580   0.00987   0.00637   0.0120  0.0118  0.9799  -7.8522   0.0000   0.2255
  12.500   1.5132   0.01035   0.00689   0.0147  0.0115  0.9923  -8.4875   0.0000   0.2230
  13.500   1.6322   0.01179   0.00838   0.0185  0.0092  1.0000  -9.8885   0.0000   0.2195
  14.000   1.6865   0.01245   0.00908   0.0216  0.0091  1.0000  -10.6110   0.0000   0.2170
  14.500   1.7389   0.01319   0.00986   0.0251  0.0089  1.0000  -11.3528   0.0000   0.2143
  15.000   1.7821   0.01403   0.01075   0.0300  0.0085  1.0000  -12.0598   0.0000   0.2108
  15.500   1.8184   0.01512   0.01191   0.0356  0.0080  1.0000  -12.7701   0.0000   0.2070
  16.000   1.8529   0.01649   0.01336   0.0409  0.0074  1.0000  -13.4958   0.0000   0.2033
  16.500   1.8846   0.01818   0.01514   0.0458  0.0069  1.0000  -14.2186   0.0000   0.1999
  17.000   1.9145   0.02022   0.01729   0.0502  0.0067  1.0000  -14.9483   0.0000   0.1967
  17.500   1.9419   0.02271   0.01987   0.0539  0.0067  1.0000  -15.6800   0.0000   0.1938
  18.000   1.9635   0.02592   0.02320   0.0568  0.0066  1.0000  -16.3708   0.0000   0.1913
  18.500   1.9778   0.03010   0.02750   0.0588  0.0065  1.0000  -16.9944   0.0000   0.1890
  19.000   1.9822   0.03546   0.03299   0.0597  0.0064  1.0000  -17.5142   0.0000   0.1872
  19.500   1.9739   0.04238   0.04005   0.0590  0.0063  1.0000  -17.8854   0.0000   0.1859
  20.000   1.9522   0.05099   0.04881   0.0567  0.0063  1.0000  -18.0850   0.0000   0.1852
  20.500   1.9136   0.06163   0.05960   0.0526  0.0062  1.0000  -18.0587   0.0000   0.1852
  21.000   1.8567   0.07448   0.07260   0.0466  0.0062  1.0000  -17.7740   0.0000   0.1861
  21.500   1.7829   0.08956   0.08783   0.0386  0.0061  1.0000  -17.2336   0.0000   0.1881
  22.000   1.6985   0.10639   0.10480   0.0287  0.0061  1.0000  -16.5013   0.0000   0.1914
  22.500   1.6055   0.12507   0.12363   0.0166  0.0062  1.0000  -15.5800   0.0000   0.1967
  23.000   1.5176   0.14424   0.14293   0.0030  0.0062  1.0000  -14.6313   0.0000   0.2038
  23.500   1.4358   0.16384   0.16267  -0.0119  0.0062  1.0000  -13.6526   0.0000   0.2129
  24.000   1.3690   0.18249   0.18144  -0.0268  0.0062  1.0000  -12.7717   0.0000   0.2231
  24.500   1.3110   0.20105   0.20011  -0.0421  0.0062  1.0000  -11.9013   0.0000   0.2346
  25.000   1.2689   0.21801   0.21715  -0.0561  0.0060  1.0000  -11.1772   0.0000   0.2458
  25.500   1.2250   0.23665   0.23589  -0.0715  0.0058  1.0000  -10.2743   0.0000   0.2594
  26.000   1.1956   0.25292   0.25223  -0.0848  0.0054  1.0000  -9.5334   0.0000   0.2713
  26.500   1.1826   0.26624   0.26560  -0.0956  0.0050  1.0000  -9.0699   0.0000   0.2803
  27.000   1.1765   0.27824   0.27765  -0.1052  0.0047  1.0000  -8.7345   0.0000   0.2880
  27.500   1.1768   0.28869   0.28814  -0.1137  0.0047  1.0000  -8.5274   0.0000   0.2941
  28.000   1.1886   0.29553   0.29499  -0.1198  0.0046  1.0000  -8.6482   0.0000   0.2968
  28.500   1.1900   0.30588   0.30537  -0.1283  0.0045  1.0000  -8.4082   0.0000   0.3027
  29.000   1.2022   0.31246   0.31197  -0.1344  0.0043  1.0000  -8.5244   0.0000   0.3050
  29.500   1.2014   0.32393   0.32346  -0.1435  0.0039  1.0000  -8.1203   0.0000   0.3118
  30.000   1.1998   0.33635   0.33590  -0.1529  0.0032  1.0000  -7.5701   0.0000   0.3191


